BEGIN Configuration File: ./examples/torus88_f
// $Id$

// Copyright (c) 2007-2015, Trustees of The Leland Stanford Junior University
// All rights reserved.
//
// Redistribution and use in source and binary forms, with or without
// modification, are permitted provided that the following conditions are met:
//
// Redistributions of source code must retain the above copyright notice, this
// list of conditions and the following disclaimer.
// Redistributions in binary form must reproduce the above copyright notice,
// this list of conditions and the following disclaimer in the documentation
// and/or other materials provided with the distribution.
//
// THIS SOFTWARE IS PROVIDED BY THE COPYRIGHT HOLDERS AND CONTRIBUTORS "AS IS"
// AND ANY EXPRESS OR IMPLIED WARRANTIES, INCLUDING, BUT NOT LIMITED TO, THE
// IMPLIED WARRANTIES OF MERCHANTABILITY AND FITNESS FOR A PARTICULAR PURPOSE
// ARE DISCLAIMED. IN NO EVENT SHALL THE COPYRIGHT OWNER OR CONTRIBUTORS BE
// LIABLE FOR ANY DIRECT, INDIRECT, INCIDENTAL, SPECIAL, EXEMPLARY, OR
// CONSEQUENTIAL DAMAGES (INCLUDING, BUT NOT LIMITED TO, PROCUREMENT OF
// SUBSTITUTE GOODS OR SERVICES; LOSS OF USE, DATA, OR PROFITS; OR BUSINESS
// INTERRUPTION) HOWEVER CAUSED AND ON ANY THEORY OF LIABILITY, WHETHER IN
// CONTRACT, STRICT LIABILITY, OR TORT (INCLUDING NEGLIGENCE OR OTHERWISE)
// ARISING IN ANY WAY OUT OF THE USE OF THIS SOFTWARE, EVEN IF ADVISED OF THE
// POSSIBILITY OF SUCH DAMAGE.

//simple 8X8 torus under injection mode 


// Topology
topology = torus;
k = 16;
n = 2;
// Routing
routing_function = fully_adaptive2;
// Flow control
num_vcs = 4;
// Traffic
traffic = uniform;
injection_rate = 0.6;
sim_type = throughput;

END Configuration File: ./examples/torus88_f
Class 0:
Packet latency average = 276.182
        minimum = 7
        maximum = 981
Network latency average = 216.75
        minimum = 7
        maximum = 981
Slowest packet = 1079
Flit latency average = 216.75
        minimum = 7
        maximum = 981
Slowest flit = 1079
Fragmentation average = 0
        minimum = 0
        maximum = 0
Injected packet rate average = 0.159672
        minimum = 0.072 (at node 157)
        maximum = 0.478 (at node 231)
Accepted packet rate average = 0.0941211
        minimum = 0.062 (at node 56)
        maximum = 0.134 (at node 80)
Injected flit rate average = 0.159672
        minimum = 0.072 (at node 157)
        maximum = 0.478 (at node 231)
Accepted flit rate average= 0.0941211
        minimum = 0.062 (at node 56)
        maximum = 0.134 (at node 80)
Injected packet length average = 1
Accepted packet length average = 1
Total in-flight flits = 17022 (0 measured)
latency change    = 1
throughput change = 1
Class 0:
Packet latency average = 559.865
        minimum = 7
        maximum = 1985
Network latency average = 286.977
        minimum = 7
        maximum = 1985
Slowest packet = 1523
Flit latency average = 286.977
        minimum = 7
        maximum = 1985
Slowest flit = 1523
Fragmentation average = 0
        minimum = 0
        maximum = 0
Injected packet rate average = 0.116531
        minimum = 0.036 (at node 157)
        maximum = 0.419 (at node 231)
Accepted packet rate average = 0.0841152
        minimum = 0.064 (at node 56)
        maximum = 0.108 (at node 111)
Injected flit rate average = 0.116531
        minimum = 0.036 (at node 157)
        maximum = 0.419 (at node 231)
Accepted flit rate average= 0.0841152
        minimum = 0.064 (at node 56)
        maximum = 0.108 (at node 111)
Injected packet length average = 1
Accepted packet length average = 1
Total in-flight flits = 16833 (0 measured)
latency change    = 0.5067
throughput change = 0.118954
Class 0:
Packet latency average = 1556.97
        minimum = 601
        maximum = 2945
Network latency average = 430.057
        minimum = 26
        maximum = 2945
Slowest packet = 4424
Flit latency average = 430.057
        minimum = 26
        maximum = 2945
Slowest flit = 4424
Fragmentation average = 0
        minimum = 0
        maximum = 0
Injected packet rate average = 0.0762344
        minimum = 0 (at node 1)
        maximum = 0.433 (at node 182)
Accepted packet rate average = 0.0759766
        minimum = 0.055 (at node 162)
        maximum = 0.101 (at node 206)
Injected flit rate average = 0.0762344
        minimum = 0 (at node 1)
        maximum = 0.433 (at node 182)
Accepted flit rate average= 0.0759766
        minimum = 0.055 (at node 162)
        maximum = 0.101 (at node 206)
Injected packet length average = 1
Accepted packet length average = 1
Total in-flight flits = 16897 (0 measured)
latency change    = 0.640414
throughput change = 0.107121
Warmed up ...Time used is 3000 cycles
Class 0:
Packet latency average = 2125.63
        minimum = 1022
        maximum = 3826
Network latency average = 225.957
        minimum = 25
        maximum = 979
Slowest packet = 79601
Flit latency average = 471.262
        minimum = 25
        maximum = 3964
Slowest flit = 1563
Fragmentation average = 0
        minimum = 0
        maximum = 0
Injected packet rate average = 0.0765977
        minimum = 0 (at node 0)
        maximum = 0.448 (at node 23)
Accepted packet rate average = 0.0769102
        minimum = 0.051 (at node 125)
        maximum = 0.105 (at node 204)
Injected flit rate average = 0.0765977
        minimum = 0 (at node 0)
        maximum = 0.448 (at node 23)
Accepted flit rate average= 0.0769102
        minimum = 0.051 (at node 125)
        maximum = 0.105 (at node 204)
Injected packet length average = 1
Accepted packet length average = 1
Total in-flight flits = 16820 (6667 measured)
latency change    = 0.267525
throughput change = 0.0121388
Class 0:
Packet latency average = 2506.46
        minimum = 1022
        maximum = 4758
Network latency average = 273.966
        minimum = 25
        maximum = 1952
Slowest packet = 79601
Flit latency average = 483.11
        minimum = 25
        maximum = 4987
Slowest flit = 1570
Fragmentation average = 0
        minimum = 0
        maximum = 0
Injected packet rate average = 0.0770117
        minimum = 0 (at node 0)
        maximum = 0.4135 (at node 230)
Accepted packet rate average = 0.0769453
        minimum = 0.059 (at node 76)
        maximum = 0.096 (at node 57)
Injected flit rate average = 0.0770117
        minimum = 0 (at node 0)
        maximum = 0.4135 (at node 230)
Accepted flit rate average= 0.0769453
        minimum = 0.059 (at node 76)
        maximum = 0.096 (at node 57)
Injected packet length average = 1
Accepted packet length average = 1
Total in-flight flits = 16935 (8192 measured)
latency change    = 0.15194
throughput change = 0.000456899
Class 0:
Packet latency average = 2844.53
        minimum = 1022
        maximum = 5782
Network latency average = 299.806
        minimum = 25
        maximum = 2921
Slowest packet = 79601
Flit latency average = 482.215
        minimum = 25
        maximum = 5948
Slowest flit = 30
Fragmentation average = 0
        minimum = 0
        maximum = 0
Injected packet rate average = 0.0770326
        minimum = 0 (at node 0)
        maximum = 0.395333 (at node 248)
Accepted packet rate average = 0.0767409
        minimum = 0.062 (at node 76)
        maximum = 0.0936667 (at node 248)
Injected flit rate average = 0.0770326
        minimum = 0 (at node 0)
        maximum = 0.395333 (at node 248)
Accepted flit rate average= 0.0767409
        minimum = 0.062 (at node 76)
        maximum = 0.0936667 (at node 248)
Injected packet length average = 1
Accepted packet length average = 1
Total in-flight flits = 17126 (9066 measured)
latency change    = 0.11885
throughput change = 0.00266386
Draining remaining packets ...
Time taken is 6671 cycles
====== Overall Traffic Statistics ======
====== Traffic class 0 ======
Packet latency average = 3118.01 (1 samples)
        minimum = 1022 (1 samples)
        maximum = 6438 (1 samples)
Network latency average = 382.605 (1 samples)
        minimum = 25 (1 samples)
        maximum = 3561 (1 samples)
Flit latency average = 1110.03 (1 samples)
        minimum = 25 (1 samples)
        maximum = 6593 (1 samples)
Fragmentation average = 0 (1 samples)
        minimum = 0 (1 samples)
        maximum = 0 (1 samples)
Injected packet rate average = 0.0770326 (1 samples)
        minimum = 0 (1 samples)
        maximum = 0.395333 (1 samples)
Accepted packet rate average = 0.0767409 (1 samples)
        minimum = 0.062 (1 samples)
        maximum = 0.0936667 (1 samples)
Injected flit rate average = 0.0770326 (1 samples)
        minimum = 0 (1 samples)
        maximum = 0.395333 (1 samples)
Accepted flit rate average = 0.0767409 (1 samples)
        minimum = 0.062 (1 samples)
        maximum = 0.0936667 (1 samples)
Injected packet size average = 1 (1 samples)
Accepted packet size average = 1 (1 samples)
Hops average = 8.99244 (1 samples)
Total run time 4.39091